[General]
network = CRAN
sim-time-limit = 3000s
num-rngs = 3
seed-set = ${repetition}
**.debugMode = false
**.N = 1
**.bbu.N = 1

[Config gen_debug]
**.as.s = exponential(100, 1)
**.as.t = exponential(5s, 0)
**.bbu.CU.X = 0.3
**.bbu.i.C = 100
**.debugMode = true

[Config deterministic]
extends = gen_debug
description = "testing code without randomness"
**.as.s = 100
**.as.t = 5s
**.bbu.CU.X = 0.3
**.bbu.i.C = 100

[Config consistency1]
extends = gen_debug
description = "First consistency test"
**.as.s = 100
**.bbu.i.C = 100

[Config consistency2]
extends = gen_debug
description = "Second consistency test"
**.as.s = 50
**.bbu.i.C = 50

[Config degeneracy_N]
extends = gen_debug
description = "degeneracy test on N"
**.N = 0
**.bbu.N = 0

[Config degeneracy_c]
extends = gen_debug
description = "degeneracy test on C"
**.bbu.i.C = 0

[Config degeneracy_s]
extends = gen_debug
description = "degeneracy test on E[s]"
**.as.s = exponential(0, 1)

[Config degeneracy_t]
extends = gen_debug
description = "degeneracy test on E[t]"
**.as.t = exponential(0s, 0)

[Config degeneracy_X]
extends = gen_debug
description = "degeneracy test on X"
**.bbu.CU.X = 1

[Config general_continuity]
extends = gen_debug
**.bbu.CU.X = 0.3

[Config continuity_C]
extends = general_continuity
description = "continuity test on C"
**.bbu.i.C = ${98, 99, 100, 101, 102}

[Config continuity_s]
extends = general_continuity
description = "continuity test on E[s]"
**.as.s = exponential(${98, 99, 100, 101, 102}, 1)

[Config continuity_t]
extends = general_continuity
description = "continuity test on E[t]"
**.as.t = exponential(${4.99, 5, 5.01}s, 0)

[Config continuity_X]
extends = general_continuity
description = "continuity test on X"
**.bbu.CU.X = ${0.29, 0.3, 0.31}

[Config warm-up-estimation-exp]
repeat = 30
**.bbu.CU.X = 0
**.as.s = exponential(1400, 1)
**.as.t = exponential(0.025s, 0)
**.bbu.i.C = 60000

[Config warm-up-estimation-log-high]
repeat = 30
**.bbu.CU.X = 0
**.as.s = lognormal(6.71, 1.05, 1)
**.as.t = exponential(0.025s, 0)
**.bbu.i.C = 60000

[Config warm-up-estimation-log]
repeat = 30
**.bbu.CU.X = 0
**.as.s = lognormal(7.24, 0.0714, 1)
**.as.t = exponential(0.025s, 0)
**.bbu.i.C = 60000

[Config general_extension]
sim-time-limit = 3000s
warmup-period = 1200s
repeat = 30
**.bbu.CU.X = ${0.0, 0.1, 0.2, 0.3, 0.4, 0.5, 0.6}
**.as.t = exponential(${0.025, 0.027, 0.03, 0.035, 0.04, 0.1}s, 0)
**.bbu.i.C = 60000

[Config exp-scenario]
extends = general_extension
**.as.s = exponential(1400, 1)

[Config log-scenario]
extends = general_extension
**.as.s = lognormal(7.24, 0.0714, 1)

[Config log-scenario-high]
extends = general_extension
repeat = 1
**.as.s = lognormal(6.71, 1.05, 1)
